Info: SIMULATION PARAMETERS:
Info: TIMESTEP               2
Info: NUMBER OF STEPS        0
Info: STEPS PER CYCLE        10
Info: PERIODIC CELL BASIS 1  50 0 0
Info: PERIODIC CELL BASIS 2  0 50 0
Info: PERIODIC CELL BASIS 3  0 0 50
Info: PERIODIC CELL CENTER   0 0 0
Info: WRAPPING WATERS AROUND PERIODIC BOUNDARIES ON OUTPUT.
Info: WRAPPING ALL CLUSTERS AROUND PERIODIC BOUNDARIES ON OUTPUT.
Info: FIRST LDB TIMESTEP     50
Info: LAST LDB TIMESTEP     -1
Info: HOM BACKGROUND SCALING 1
Info: PME BACKGROUND SCALING 1
Info: MIN ATOMS PER PATCH    40
Info: INITIAL TEMPERATURE    2000
Info: CENTER OF MASS MOVING INITIALLY? NO
Info: REMOVING CENTER OF MASS DRIFT DURING SIMULATION
Info: DIELECTRIC             1
Info: EXCLUDE                SCALED ONE-FOUR
Info: 1-4 ELECTROSTATICS SCALED BY 1
Info: MODIFIED 1-4 VDW PARAMETERS WILL BE USED
Info: DCD FILENAME           MD2000K.dcd
Info: DCD FREQUENCY          500
Info: DCD FIRST STEP         500
Info: DCD FILE WILL CONTAIN UNIT CELL DATA
Info: XST FILENAME           MD2000K.xst
Info: XST FREQUENCY          500
Info: NO VELOCITY DCD OUTPUT
Info: NO FORCE DCD OUTPUT
Info: OUTPUT FILENAME        MD2000K
Info: BINARY OUTPUT FILES WILL BE USED
Info: RESTART FILENAME       MD2000K.restart
Info: RESTART FREQUENCY      5000
Info: BINARY RESTART FILES WILL BE USED
Info: SWITCHING ACTIVE
Info: SWITCHING ON           10
Info: SWITCHING OFF          12
Info: PAIRLIST DISTANCE      14
Info: PAIRLIST SHRINK RATE   0.01
Info: PAIRLIST GROW RATE     0.01
Info: PAIRLIST TRIGGER       0.3
Info: PAIRLISTS PER CYCLE    2
Info: PAIRLISTS ENABLED
Info: MARGIN                 0
Info: HYDROGEN GROUP CUTOFF  2.5
Info: PATCH DIMENSION        16.5
Info: ENERGY OUTPUT STEPS    500
Info: CROSSTERM ENERGY INCLUDED IN DIHEDRAL
Info: TIMING OUTPUT STEPS    5000
Info: PRESSURE OUTPUT STEPS  500
Info: LANGEVIN DYNAMICS ACTIVE
Info: LANGEVIN TEMPERATURE   2000
Info: LANGEVIN USING BBK INTEGRATOR
Info: LANGEVIN DAMPING COEFFICIENT IS 1 INVERSE PS
Info: LANGEVIN DYNAMICS NOT APPLIED TO HYDROGENS
Info: PARTICLE MESH EWALD (PME) ACTIVE
Info: PME TOLERANCE               1e-06
Info: PME EWALD COEFFICIENT       0.257952
Info: PME INTERPOLATION ORDER     4
Info: PME GRID DIMENSIONS         54 54 54
Info: PME MAXIMUM GRID SPACING    1
Info: FULL ELECTROSTATIC EVALUATION FREQUENCY      2
Info: USING VERLET I (r-RESPA) MTS SCHEME.
Info: C1 SPLITTING OF LONG RANGE ELECTROSTATICS
Info: PLACING ATOMS IN PATCHES BY HYDROGEN GROUPS
Info: RIGID BONDS TO HYDROGEN : ALL
Info:         ERROR TOLERANCE : 1e-08
Info:          MAX ITERATIONS : 100
Info: RIGID WATER USING SETTLE ALGORITHM
Info: RANDOM NUMBER SEED     1715273947
Info: USE HYDROGEN BONDS?    NO
Info: COORDINATE PDB         ../input/initial_positions.pdb
Info: STRUCTURE FILE         ../input/Au.psf
Info: PARAMETER file: CHARMM format!
Info: PARAMETERS             ../input/FF_gold.inp
Info: USING ARITHMETIC MEAN TO COMBINE L-J SIGMA PARAMETERS
Info: SUMMARY OF PARAMETERS:
Info: 0 BONDS
Info: 0 ANGLES
Info: 0 DIHEDRAL
Info: 0 IMPROPER
Info: 0 CROSSTERM
Info: 1 VDW
Info: 0 VDW_PAIRS
Info: 0 NBTHOLE_PAIRS
Info: STRUCTURE SUMMARY:
Info: 864 ATOMS
Info: 0 BONDS
Info: 0 ANGLES
Info: 0 DIHEDRALS
Info: 0 IMPROPERS
Info: 0 CROSSTERMS
Info: 0 EXCLUSIONS
Info: 0 RIGID BONDS
Info: 2592 DEGREES OF FREEDOM
Info: 864 HYDROGEN GROUPS
Info: 1 ATOMS IN LARGEST HYDROGEN GROUP
Info: 864 MIGRATION GROUPS
Info: 1 ATOMS IN LARGEST MIGRATION GROUP
Info: TOTAL MASS = 170179 amu
Info: TOTAL CHARGE = 0 e
Info: MASS DENSITY = 2.26077 g/cm^3
Info: ATOM DENSITY = 0.006912 atoms/A^3
Info: ADDED 0 IMPLICIT EXCLUSIONS
Info: NONBONDED TABLE R-SQUARED SPACING: 0.0625
Info: NONBONDED TABLE SIZE: 769 POINTS
Info: REMOVING COM VELOCITY 0.192111 0.0751762 -0.177283
TCL: Running for 500000 steps
ETITLE: TS BOND ANGLE DIHED IMPRP ELECT VDW BOUNDARY MISC KINETIC TOTAL TEMP POTENTIAL TOTAL3 TEMPAVG PRESSURE GPRESSURE VOLUME PRESSAVG GPRESSAVG
ENERGY: 0 0.0000 0.0000 0.0000 0.0000 0.0000 -31150.8408 0.0000 0.0000 5484.5833 -25666.2575 2129.6049 -31150.8408 -25666.2575 2129.6049 2030.3226 2030.3226 125000.0000 2030.3226 2030.3226
ENERGY: 100000 0.0000 0.0000 0.0000 0.0000 0.0000 -19031.2462 0.0000 0.0000 5197.9660 -13833.2802 2018.3144 -19031.2462 -13826.7159 2033.8355 -176.2761 -176.2761 125000.0000 207.5700 207.5700
ENERGY: 200000 0.0000 0.0000 0.0000 0.0000 0.0000 -19423.7184 0.0000 0.0000 5182.0124 -14241.7060 2012.1198 -19423.7184 -14246.9439 2020.9148 -195.1696 -195.1696 125000.0000 72.2367 72.2367
ENERGY: 300000 0.0000 0.0000 0.0000 0.0000 0.0000 -19329.3246 0.0000 0.0000 5584.3138 -13745.0107 2168.3291 -19329.3246 -13744.5328 2073.2658 57.4589 57.4589 125000.0000 394.5307 394.5307
ENERGY: 400000 0.0000 0.0000 0.0000 0.0000 0.0000 -19229.0600 0.0000 0.0000 5246.1160 -13982.9440 2037.0105 -19229.0600 -13987.2158 2007.4962 -320.2918 -320.2918 125000.0000 256.4787 256.4787
ENERGY: 500000 0.0000 0.0000 0.0000 0.0000 0.0000 -18754.5839 0.0000 0.0000 5232.8970 -13521.6868 2031.8778 -18754.5839 -13511.1429 2007.6348 -327.6561 -327.6561 125000.0000 168.0322 168.0322
